**Fracturing and fragmentation modelling
**AiFrac
**Developed by Xuhai Tang group
*Node
1,463200.000,4283800.000,950.000
2,463578.947,4283397.368,950.000
3,463200.000,4283397.368,950.000
4,463200.000,4283800.000,971.426
5,463578.947,4283800.000,971.426
6,463578.947,4283800.000,950.000
7,463831.579,4283800.000,950.000
8,464000.000,4283800.000,950.000
9,464000.000,4283397.368,950.000
10,463831.579,4283800.000,971.426
11,464050.000,4283800.000,950.000
12,464050.000,4283800.000,971.546
13,464100.000,4283800.000,950.000
14,464150.000,4283800.000,950.000
15,464100.000,4283800.000,971.833
16,464200.000,4283800.000,950.000
17,464250.000,4283800.000,950.000
18,464200.000,4283397.368,950.000
19,464200.000,4283800.000,971.067
20,464200.000,4283397.368,971.067
** ... 47850 like lines cut
**------------------------
*Element, type = C3D4
1,1,4,2,6
2,1,3,2,4
3,2,4,3,56
4,2,4,5,6
5,2,5,4,57
6,2,4,56,57
7,5,6,7,60
8,2,6,5,60
9,2,5,57,60
10,5,7,10,60
11,5,60,10,848
12,5,57,60,848
13,7,9,8,10
14,7,9,10,60
15,9,10,60,848
16,8,10,9,822
17,9,822,10,849
18,9,10,848,849
19,8,65,11,822
20,8,9,65,822
** ... 259829 like lines cut
**------------------------
*Elset, elset=set-1, generate
1,259849,1
*Section, elset = set-1, material = MATERIAL-1
 1.
**------------------------
*Elset, elset=SET-MATRIX, internal
1, 2, 3, 4, 5, 6, 7, 8, 9, 10, 11, 12, 13, 14, 15, 16
17, 18, 19, 20, 21, 22, 23, 24, 25, 26, 27, 28, 29, 30, 31, 32
33, 34, 35, 36, 37, 38, 39, 40, 41, 42, 43, 44, 45, 46, 47, 48
49, 50, 51, 52, 53, 54, 55, 56, 57, 58, 59, 60, 61, 62, 63, 64
65, 66, 67, 68, 69, 70, 71, 72, 73, 74, 75, 76, 77, 78, 79, 80
81, 82, 83, 84, 85, 86, 87, 88, 89, 90, 91, 92, 93, 94, 95, 96
97, 98, 99, 100, 101, 102, 103, 104, 105, 106, 107, 108, 109, 110, 111, 112
113, 114, 115, 116, 117, 118, 119, 120, 121, 122, 123, 124, 125, 126, 127, 128
129, 130, 131, 132, 133, 134, 135, 136, 137, 138, 139, 140, 141, 142, 143, 144
145, 146, 147, 148, 149, 150, 151, 152, 153, 154, 155, 156, 157, 158, 159, 160
161, 162, 163, 164, 165, 166, 167, 168, 169, 170, 171, 172, 173, 174, 175, 176
177, 178, 179, 180, 181, 182, 183, 184, 185, 186, 187, 188, 189, 190, 191, 192
193, 194, 195, 196, 197, 198, 199, 200, 201, 202, 203, 204, 205, 206, 207, 208
209, 210, 211, 212, 213, 214, 215, 216, 217, 218, 219, 220, 221, 222, 223, 224
225, 226, 227, 228, 229, 230, 231, 232, 233, 234, 235, 236, 237, 238, 239, 240
241, 242, 243, 244, 245, 246, 247, 248, 249, 250, 251, 252, 253, 254, 255, 256
257, 258, 259, 260, 261, 262, 263, 264, 265, 266, 267, 268, 269, 270, 271, 272
273, 274, 275, 276, 277, 278, 279, 280, 281, 282, 283, 284, 285, 286, 287, 288
289, 290, 291, 292, 293, 294, 295, 296, 297, 298, 299, 300, 301, 302, 303, 304
305, 306, 307, 308, 309, 310, 311, 312, 313, 314, 315, 316, 317, 318, 319, 320
** ... 12377 like lines cut
*Elset, elset=SET-FRACTURE, internal
9472, 9473, 9474, 9475, 9476, 9477, 9478, 9479, 9480, 9481, 9482, 9483, 9484, 9485, 9486, 9487
9488, 9489, 9490, 9491, 9492, 9493, 9494, 9495, 9579, 9580, 9581, 9582, 9583, 9584, 9585, 9586
9587, 9588, 9589, 9590, 9591, 9592, 9593, 9594, 9595, 9596, 9597, 9598, 9599, 9600, 9601, 9602
9603, 9604, 9605, 9606, 9607, 9608, 9609, 9610, 9611, 9612, 9613, 9614, 9615, 9658, 9659, 9660
9661, 9662, 9663, 9700, 9701, 9702, 9703, 9704, 9705, 9706, 9707, 9708, 9709, 9710, 9711, 9712
9713, 9714, 9715, 9716, 9717, 9718, 9719, 9720, 9721, 9722, 9723, 9724, 9725, 9726, 9727, 9728
9729, 9730, 9731, 9732, 9733, 9734, 9735, 9736, 9737, 9738, 9739, 9740, 9741, 9742, 9743, 9744
9745, 9746, 9747, 9790, 9791, 9792, 9793, 9794, 9795, 9838, 9839, 9840, 9841, 9842, 9843, 9844
9845, 9846, 9847, 9848, 9849, 9850, 9851, 9852, 9853, 9854, 9855, 9856, 9857, 9858, 9859, 9860
9861, 9862, 9863, 9864, 9865, 9866, 9867, 9868, 9869, 9870, 9871, 9872, 9873, 9874, 9875, 9876
9877, 9878, 9879, 9970, 9971, 9972, 9973, 9974, 9975, 9976, 9977, 9978, 9979, 9980, 9981, 9982
9983, 9984, 9985, 9986, 9987, 9988, 9989, 9990, 9991, 9992, 9993, 9994, 9995, 9996, 9997, 9998
9999, 10000, 10001, 10002, 10003, 10004, 10005, 10006, 10007, 10008, 10009, 10010, 10011, 10060, 10061, 10062
10063, 10064, 10065, 10066, 10067, 10068, 10069, 10070, 10071, 10072, 10073, 10074, 10075, 10076, 10077, 10096
10097, 10098, 10099, 10100, 10101, 10102, 10103, 10104, 10105, 10106, 10107, 10108, 10109, 10110, 10111, 10112
10113, 10114, 10115, 10116, 10117, 10118, 10119, 10120, 10121, 10122, 10123, 10124, 10125, 10126, 10127, 10128
10129, 10130, 10131, 10132, 10133, 10134, 10135, 10136, 10137, 10138, 10139, 10140, 10141, 10142, 10143, 10144
10145, 10146, 10147, 10148, 10149, 10198, 10199, 10200, 10201, 10202, 10203, 10204, 10205, 10206, 10207, 10208
10209, 10240, 10241, 10242, 10243, 10244, 10245, 10246, 10247, 10248, 10249, 10250, 10251, 10252, 10253, 10254
10255, 10256, 10257, 10258, 10259, 10260, 10261, 10262, 10263, 10264, 10265, 10266, 10267, 10268, 10269, 10270
** ... 3825 like lines cut
*Nset, nset=nX
1,3,4,55,56,59,128,165,197,199,200,233,268,269,294,324
325,351,387,422,424,462,495,530,531,561,595,597,598,632,655,656
702,731,732,765,766,767,768,819,846,847,867,890,891,893,932,933
976,1029,1055,1097,1098,1099,1100,1143,1144,1185,1217,1258,1305,1328,1359,1395
1396,1476,1499,1518,1519,1547,1549,1576,1577,1591,1592,1627,1629,1671,1716,1763
1779,1780,1834,1881,1883,1885,1942,1984,2004,2005,2091,2128,2173,2197,2198,2245
2246,2247,2269,2287,2307,2325,2326,2344,2345,2387,2409,2410,2411,2451,2452,2473
2489,2509,2538,2539,2540,2566,2568,2637,2638,2654,2673,2674,2691,2737,2806,2808
2823,2841,2867,2920,2954,2970,2971,2990,3028,3042,3043,3126,3127,3145,3163,3176
3191,3192,3250,3251,3267,3270,3301,3303,3304,3366,3388,3389,3402,3421,3441,3473
3488,3508,3565,3586,3601,3617,3618,3630,3631,3651,3689,3731,3732,3756,3757,3758
3787,3788,3847,3861,3899,3900,3931,3934,3955,3975,3996,3997,4034,4035,4058,4059
4087,4134,4136,4160,4192,4207,4224,4286,4306,4343,4344,4357,4372,4386,4387,4411
4465,4466,4485,4509,4528,4620,4621,4646,4663,4686,4688,4713,4714,4745,4789,4791
4813,4829,4850,4876,4920,4947,4965,4966,4967,4987,5000,5025,5041,5042,5043,5063
5084,5085,5087,5107,5109,5143,5144,5170,5172,5222,5223,5249,5285,5286,5287,5332
5333,5358,5393,5394,5455,5456,5474,5475,5514,5556,5599,5666,5667,5668,5688,5690
5723,5756,5757,5779,5800,5861,5862,5908,5909,5910,5929,5951,5970,6036,6037,6058
6059,6086,6136,6137,6138,6161,6163,6198,6225,6262,6264,6289,6328,6348,6374,6397
6398,6420,6446,6468,6507,6508,6530,6551,6552,6565,6583,6600,6620,6670,6705,6706
** ... 114 like lines cut
*Nset, nset=pX
52,53,95,125,126,164,195,196,229,266,267,291,323,385,386,420
421,457,494,560,594,627,629,652,653,698,699,762,763,764,815,817
845,866,888,950,973,975,1025,1026,1027,1075,1096,1117,1141,1142,1159,1160
1213,1216,1257,1284,1303,1304,1357,1358,1392,1393,1394,1423,1448,1496,1497,1544
1545,1546,1573,1622,1624,1625,1666,1668,1690,1761,1762,1778,1804,1805,1806,1853
1855,1906,1907,1969,1983,2023,2024,2042,2125,2147,2172,2217,2218,2219,2244,2268
2306,2371,2407,2408,2446,2448,2449,2472,2486,2487,2508,2520,2521,2537,2562,2604
2605,2607,2671,2672,2710,2736,2760,2779,2781,2821,2822,2839,2840,2852,2864,2865
2918,2940,2941,2942,2969,2989,3007,3008,3009,3025,3026,3040,3041,3064,3083,3084
3108,3125,3161,3162,3211,3230,3283,3334,3335,3356,3386,3400,3401,3440,3505,3506
3528,3564,3600,3615,3616,3629,3649,3687,3706,3783,3786,3809,3810,3857,3859,3929
3930,3953,4032,4132,4158,4176,4191,4205,4222,4223,4253,4285,4304,4305,4341,4342
4385,4409,4431,4445,4483,4527,4546,4547,4604,4605,4645,4683,4711,4744,4770,4788
4811,4812,4848,4849,4874,4898,4919,4945,4946,4963,4998,4999,5024,5040,5061,5062
5106,5190,5221,5248,5284,5329,5392,5431,5432,5453,5454,5513,5538,5598,5644,5685
5686,5687,5721,5774,5775,5777,5798,5825,5884,5906,5907,5949,5968,6035,6085,6107
6108,6135,6180,6259,6260,6286,6306,6326,6371,6372,6373,6395,6444,6467,6489,6505
6529,6582,6641,6642,6644,6686,6704,6736,6737,6768,6769,6788,6811,6851,6852,6853
6923,6972,6973,7092,7114,7138,7171,7215,7243,7272,7273,7311,7313,7378,7402,7440
7466,7483,7484,7505,7549,7550,7551,7595,7618,7695,7747,7782,7783,7784,7830,7902
** ... 110 like lines cut
*Nset, nset=nY
766,768,771,772,773,776,777,778,779,780,782,783,784,786,787,789
791,793,794,795,796,797,799,802,803,804,805,806,807,809,812,813
814,815,816,817,818,1327,1328,1329,1332,1333,1334,1335,1337,1338,1339,1341
1342,1343,1345,1349,1350,1351,1352,1353,1358,1908,1910,1912,1913,1917,1918,1919
1921,1922,1925,1926,1928,1931,1932,1933,1935,1937,1939,1940,1941,2409,2411,2412
2413,2415,2416,2417,2418,2421,2422,2423,2425,2426,2427,2428,2429,2430,2431,2433
2434,2435,2436,2439,2440,2441,2442,2443,2446,2449,2450,2884,2888,2889,2890,2891
2893,2895,2897,2898,3302,3303,3307,3308,3309,3310,3312,3313,3316,3318,3319,3322
3323,3324,3325,3326,3328,3329,3330,3331,3333,3335,3731,3733,3734,3735,3736,3739
3741,3742,3743,3744,3745,3746,3747,3748,3749,3751,3752,3755,4224,4226,4227,4229
4230,4233,4235,4236,4237,4238,4240,4241,4242,4243,4244,4247,4248,4249,4250,4251
4252,4253,4685,4686,4687,4688,4690,4692,4693,4694,4696,4699,4700,4704,4705,4706
4707,4709,4710,4711,5191,5193,5194,5196,5197,5198,5199,5200,5203,5204,5205,5207
5208,5209,5210,5211,5212,5213,5215,5217,5219,5221,5688,5689,5690,5694,5695,5696
5698,5700,5702,5705,5706,5707,5708,5709,5710,5713,5715,5717,5718,5719,5720,5721
6199,6200,6201,6204,6205,6207,6208,6209,6211,6212,6214,6215,6216,6217,6220,6221
6222,6223,6224,6705,6707,6709,6710,6711,6712,6713,6715,6716,6717,6718,6719,6721
6726,6727,6729,6730,6731,6732,6733,6737,6738,7216,7218,7219,7223,7224,7225,7226
7229,7230,7231,7233,7234,7236,7237,7238,7239,7240,7243,7718,7719,7720,7721,7723
7724,7725,7727,7728,7730,7731,7732,7733,7735,7736,7737,7738,7740,7741,7745,7746
** ... 104 like lines cut
*Nset, nset=pY
1,4,5,6,7,8,10,11,12,13,14,15,16,17,19,21
24,26,27,29,30,32,34,35,37,39,41,42,43,44,45,46
47,49,50,51,52,819,820,821,822,823,825,826,827,828,829,830
832,833,834,835,842,843,844,845,1359,1361,1363,1364,1367,1368,1370,1372
1373,1374,1376,1378,1379,1380,1381,1383,1384,1385,1386,1389,1391,1392,1942,1944
1945,1946,1947,1948,1950,1951,1953,1954,1955,1956,1957,1959,1960,1962,1963,1964
1965,1966,1967,1968,1969,2452,2454,2455,2456,2457,2459,2460,2462,2463,2465,2466
2467,2471,2472,2899,2900,2901,2903,2904,2907,2908,2909,2911,2914,2915,2916,2917
2918,2919,3336,3340,3343,3344,3345,3346,3347,3349,3350,3351,3352,3353,3355,3356
3756,3758,3759,3761,3762,3763,3764,3766,3768,3769,3770,3774,3775,3776,3778,3779
3780,3782,3783,3785,3786,4254,4255,4257,4258,4259,4261,4262,4263,4266,4269,4270
4271,4272,4273,4274,4276,4278,4279,4280,4281,4282,4283,4284,4285,4713,4714,4716
4718,4720,4721,4722,4723,4724,4725,4726,4727,4729,4731,4733,4735,4736,4737,4738
4739,4742,4743,4744,5223,5224,5226,5231,5232,5234,5235,5237,5238,5239,5240,5241
5244,5245,5247,5248,5724,5725,5727,5728,5729,5730,5732,5735,5736,5737,5739,5741
5742,5744,5745,5748,5750,5751,5753,5755,6225,6226,6228,6229,6230,6231,6235,6236
6237,6238,6241,6242,6244,6245,6246,6250,6251,6252,6253,6255,6256,6257,6259,6260
6739,6740,6741,6742,6743,6746,6749,6750,6751,6752,6753,6754,6756,6757,6758,6759
6760,6762,6764,6765,6766,6767,6769,7244,7245,7248,7249,7250,7251,7252,7256,7258
7260,7263,7264,7265,7267,7269,7270,7271,7748,7751,7753,7754,7756,7758,7759,7760
** ... 112 like lines cut
*Nset, nset=nZ
1,2,3,6,7,8,9,11,13,14,16,17,18,21,22,23
26,27,28,32,34,35,36,39,40,41,42,44,47,48,49,50
52,54,55,60,61,65,66,67,69,71,73,74,75,77,78,79
80,84,85,86,87,88,89,90,92,93,94,95,98,99,100,101
102,103,105,106,107,108,110,112,113,114,115,116,120,121,122,124
125,126,127,128,129,130,131,132,133,134,135,137,140,141,143,144
146,150,154,155,157,158,159,160,163,165,167,168,169,171,173,174
175,176,178,180,183,184,185,186,187,188,189,190,191,194,195,197
198,199,201,203,206,207,208,209,211,213,215,216,217,219,221,222
225,226,228,229,230,231,232,234,235,236,240,241,242,243,244,245
247,249,250,251,252,255,256,257,258,260,261,264,266,267,268,269
270,271,272,273,274,275,277,278,279,280,281,282,283,285,287,288
289,290,291,292,293,294,296,297,298,301,302,303,304,307,308,309
310,311,312,313,316,317,318,320,321,322,323,324,326,327,328,330
332,333,334,335,336,337,338,339,340,341,342,343,344,346,347,348
349,352,353,354,357,358,359,360,361,363,364,365,368,369,370,372
376,378,380,381,382,383,384,385,387,388,389,392,393,395,397,398
399,402,403,405,406,409,410,412,414,416,419,420,421,422,423,424
425,426,428,431,432,433,434,436,438,441,442,443,444,445,449,450
451,452,453,454,455,456,457,458,461,462,464,465,466,467,471,472
** ... 15 like lines cut
*Nset, nset=pZ
47031,47032,47033,47034,47035,47037,47038,47040,47041,47042,47043,47044,47046,47048,47050,47051
47053,47054,47059,47060,47061,47064,47065,47066,47067,47071,47073,47074,47075,47078,47079,47080
47081,47084,47085,47086,47088,47089,47092,47093,47094,47098,47100,47101,47102,47105,47107,47108
47109,47110,47112,47113,47114,47117,47119,47120,47121,47122,47123,47125,47126,47127,47129,47130
47131,47133,47137,47138,47139,47141,47142,47145,47146,47148,47149,47152,47153,47154,47155,47157
47160,47162,47163,47164,47165,47166,47167,47170,47171,47174,47175,47177,47178,47180,47181,47184
47186,47187,47190,47191,47192,47193,47195,47197,47199,47201,47203,47205,47206,47207,47209,47210
47211,47212,47214,47215,47216,47217,47218,47219,47222,47223,47224,47225,47227,47228,47229,47230
47231,47232,47233,47234,47235,47237,47238,47239,47240,47241,47243,47244,47245,47246,47250,47251
47253,47254,47258,47259,47260,47261,47262,47263,47265,47267,47268,47270,47271,47273,47274,47276
47277,47278,47279,47280,47281,47282,47285,47287,47288,47290,47292,47293,47294,47297,47299,47300
47301,47302,47304,47306,47308,47312,47314,47316,47317,47318,47320,47321,47322,47325,47326,47329
47330,47331,47332,47333,47334,47335,47339,47340,47341,47342,47343,47344,47345,47348,47349,47350
47352,47353,47354,47357,47359,47360,47361,47362,47364,47365,47366,47368,47369,47370,47373,47374
47375,47376,47379,47380,47383,47384,47385,47386,47387,47389,47392,47393,47394,47395,47396,47398
47399,47401,47403,47405,47406,47407,47408,47409,47411,47414,47415,47417,47418,47419,47420,47422
47423,47424,47425,47426,47429,47431,47432,47433,47434,47435,47437,47438,47439,47440,47442,47443
47445,47446,47449,47451,47454,47455,47456,47458,47460,47462,47464,47466,47467,47468,47471,47473
47474,47477,47478,47480,47481,47483,47485,47487,47488,47489,47490,47492,47493,47494,47495,47498
47499,47500,47501,47502,47503,47505,47506,47507,47508,47512,47513,47516,47517,47519,47521,47524
** ... 15 like lines cut
*Nset, nset=Set-all, generate
1, 47870, 1
**------------------------
*Elset, elset=_minX_S1, internal
266,926,1190,1322,2114,2246,2642,2643,2774,2775,2906,2907,3302,3698,4622,4623
4886,5282,5942,6074,6075,6866,6867,7130,7131,7262,7263,7526,7790,8978,9521,10037
10829,11885,11886,12602,12603,12698,15299,15300,16056,16470,16471,17659,19162,19360,19361,19711
19712,22633,25181,26044,26228,26229,27392,27393,27515,27516,27638,28421,28533,28534,28635,30050
30290,30291,30899,32381,32501,33479,33611,33612,34602,35309,35310,35921,35922,36288,36289,36410
36411,36542,36543,37457,38175,38176,38301,38794,41346,41347,41466,41685,41808,42333,42723,43581
43941,44304,44305,45313,46590,47544,48069,48070,48871,49159,49160,49862,49981,50242,50893,52147
54308,54739,54853,55627,55628,55759,57079,57607,57739,59191,59839,60679,60680,61999,62131,62263
62647,63331,64117,65173,65174,65305,67450,68453,70402,71385,71386,72573,76343,76344,81014,82424
82425,82556,82688,82952,83216,83741,84650,84651,84746,85202,86642,88739,88740,88868,89720,89819
91403,91532,92672,92673,93461,93462,93593,93725,93989,94769,94770,95027,96097,96493,96889,97129
99583,99584,99847,100564,101107,102088,103129,104623,105596,105597,106219,107560,109130,109337,111363,113866
113867,114730,114731,116386,116618,118459,118460,118585,119191,119980,120397,120829,121678,121679,121768,122026
122341,123016,123130,124327,124927,125177,125178,125360,125537,125867,126335,126944,127871,129411,129412,129504
129731,129732,130085,130086,130211,130469,130595,132317,132318,133190,133301,133631,136919,137185,137515,137821
138301,139172,139173,139585,140092,140617,142438,142439,142555,142768,142769,142873,142874,142981,142982,144448
145817,146711,146712,146958,147179,147180,147299,148499,148748,149720,150197,150524,152762,152877,154161,154914
156259,157164,157229,157807,157808,158026,159086,160564,160565,162697,162698,164221,165644,165645,165737,165738
165830,166569,167217,167218,168584,169172,169480,169685,170420,171585,172294,172494,172495,173700,173701,174291
175180,175504,175963,175964,177085,178540,178789,179020,180025,180026,180280,181633,181730,181837,181838,182440
** ... 8 like lines cut
*Elset, elset=_minX_S2, internal
2,134,267,398,530,662,663,927,1058,1059,1323,1454,1586,1718,1850,1851
2115,2378,2510,3038,3170,3303,3567,3830,3962,4095,4226,4358,5018,5150,5151,5283
5546,5678,5810,5811,6206,6338,6470,6602,6603,7395,7658,7659,7922,8187,8318,8582
8714,9110,9212,9314,9416,9417,9641,9773,9905,9906,10169,10301,10566,10698,10961,10962
11357,11753,12017,12422,12512,12513,12806,12807,12932,13196,13460,13592,13844,13949,14144,14243
14244,14345,14447,14549,14622,14693,14946,15062,15182,15404,15512,15626,15627,15734,15978,16057
16227,16228,16308,16551,17061,17162,17533,17534,17660,18001,18110,18226,18341,18442,18662,18784
18910,19036,19432,19576,19638,19805,19907,20471,20699,20815,21019,21112,21208,21311,21514,21640
21641,22018,22019,22247,22248,22748,22850,22970,23497,23629,23761,24025,24158,24290,24685,24938
25060,25303,25435,25567,25804,25805,26045,26141,26634,26933,27032,27764,27765,28028,28292,28293
28636,28877,29006,29007,29138,29270,29402,29534,29666,29930,30051,30171,30407,30516,30636,31032
31289,31290,31415,31547,32051,32159,32621,32867,33119,33234,33743,34126,34241,34491,34710,34711
35057,35183,35184,35435,35801,35802,36674,37047,37143,37244,37577,37989,37990,38302,38553,38554
38679,38913,39045,39177,39309,39425,39538,39663,39789,39918,40050,40446,40974,41106,41226,41227
41575,41937,41938,42069,42201,42202,42841,42946,43048,43141,43142,43347,43461,43582,44061,44181
44182,44433,44565,44698,44961,45093,45094,45208,45418,45534,45535,46326,46327,46722,46842,47202
47676,47808,48193,48534,48645,48762,48763,48970,49478,49609,49741,50110,50111,50243,50374,50638
50767,51022,51143,51619,51883,52015,52016,52279,52507,52621,52735,52736,52853,53110,53111,53489
53605,53726,53834,54208,54406,54514,54967,55496,55760,56023,56155,56156,56552,56683,56947,56948
57211,57343,57475,57476,57871,58003,58135,58267,58399,58663,58795,58927,59323,59456,59588,59720
** ... 59 like lines cut
*Elset, elset=_minX_S3, internal
3,135,399,1587,1719,1983,3171,3434,3435,4359,4490,4491,4754,4755,5414,5415
6735,6998,6999,7923,8054,8055,8319,8583,8715,10302,10434,11226,11489,11490,11621,11622
11754,12018,12119,12120,12221,12222,12423,12933,13064,13065,13197,13950,14048,14049,14694,14765
14766,14843,14844,15063,15183,15735,15830,15831,15909,15910,16143,16144,16309,16552,17282,17407
17408,17779,17780,18111,18227,18443,18547,18548,18911,19037,19288,19289,19433,19577,20024,20140
20141,20249,20250,20354,20355,20584,20585,20816,20921,21209,21413,21515,21767,21892,21893,22370
22501,22502,22749,23102,23233,23234,23498,23630,23762,23893,23894,24421,24422,24686,24817,24818
25061,25568,25685,25686,26321,26322,26423,26424,26528,26529,26735,26736,26934,27033,27152,27153
27272,27273,27897,29139,29271,29535,29667,29798,29799,29931,30408,30517,30768,31163,31164,31548
31679,31680,31811,31812,32160,32622,32741,32742,32868,32993,32994,33120,33235,33350,33351,33876
34007,34008,34242,34492,34815,34816,35436,35561,35562,36044,36045,36170,36171,36675,36803,36804
37048,37144,37245,37350,37692,37693,37797,37798,38083,38680,39178,40183,40447,40578,40579,40711
40842,40843,40975,42070,42466,42842,43049,43348,43462,43701,43702,43821,43822,44830,45798,45799
46062,46063,46194,46195,46459,46723,46843,46962,46963,47082,47083,47203,47422,47423,47809,48312
48313,48971,49253,49345,49346,49742,50506,50507,51023,51144,51254,51255,51365,51366,51620,52280
53242,53243,53490,53727,53835,53953,53954,54085,54086,54209,54625,54626,54968,55099,55100,55231
55232,55364,56287,56288,56419,56420,56684,57212,57872,58928,59059,59060,59324,60065,60182,60548
60944,61076,61207,61208,61339,61340,61471,61472,61603,61604,61868,62528,62756,62863,62864,62974
62975,63091,63092,63458,63722,63854,63985,63986,64249,64250,64514,64646,65042,65827,65828,66053
66167,66407,66526,66527,66791,66922,66923,67054,67055,67186,67187,67318,67319,67979,68528,68626
** ... 56 like lines cut
*Elset, elset=_minX_S4, internal
531,794,795,1191,1455,1982,2247,2379,2511,3039,3566,3699,3831,3963,4094,4227
4887,5019,5547,5679,5943,6207,6339,6471,6734,7394,7527,7791,8186,8450,8451,8846
8847,8979,9111,9213,9315,9522,9642,9774,10038,10170,10433,10565,10697,10830,11093,11094
11225,11358,12323,12324,12699,13328,13329,13461,13593,13724,13725,13845,14145,14346,14448,14550
14621,14945,15405,15513,15979,16389,16390,17161,17281,17890,17891,18002,18340,18661,18785,19163
19504,19505,19637,19804,19906,20023,20470,20698,20920,21020,21113,21310,21412,21766,22136,22137
22369,22634,22851,22969,23101,23365,23366,24026,24157,24289,24553,24554,24939,25182,25304,25436
25930,25931,26142,26633,26834,26835,27639,27896,28029,28160,28161,28422,28751,28752,28878,29403
30170,30635,30767,30900,31031,31416,31937,31938,32052,32267,32268,32382,32502,33480,33744,33875
34125,34370,34371,34603,34931,34932,35058,35681,35682,36932,36933,37349,37458,37578,37896,37897
38082,38427,38428,38795,38914,39046,39310,39424,39537,39664,39790,39919,40051,40182,40314,40315
40710,41107,41467,41576,41686,41809,42334,42465,42594,42595,42724,42947,43239,43240,43942,44062
44434,44566,44697,44829,44962,45209,45314,45419,45666,45667,45930,45931,46458,46591,47314,47315
47545,47677,47940,47941,48192,48426,48427,48535,48646,48872,49066,49067,49252,49477,49610,49863
49982,50375,50639,50768,50894,51487,51488,51751,51752,51884,52148,52393,52394,52508,52622,52852
52978,52979,53374,53375,53606,54309,54407,54515,54740,54854,55363,55495,55891,55892,56024,56551
56815,56816,57080,57344,57608,57740,58004,58136,58268,58400,58531,58532,58664,58796,59192,59455
59587,59719,59840,59951,60421,60422,60812,61736,62000,62264,62395,62396,62648,63211,63332,64381
64382,64777,64910,65434,65435,65938,65939,66286,66287,66658,66659,67451,67583,67715,67847,68104
68842,68843,69346,69347,69610,69742,69743,70403,70522,71781,71782,72177,72309,72310,72574,73610
** ... 51 like lines cut
*Surface, type = ELEMENT, name = minX
_minX_S1, S1
_minX_S2, S2
_minX_S3, S3
_minX_S4, S4
*Elset, elset=_maxX_S1, internal
526,527,658,659,922,1054,2374,2375,2506,3298,3562,4090,4354,4486,5014,5410
5542,5938,6730,6994,6995,7126,7522,7523,8182,8183,8314,8315,8446,8447,8578,8842
9106,9412,9901,10165,10166,10561,10562,10693,10957,11221,11485,11617,12802,12803,13324,13456
13720,13721,13945,13946,14140,14141,14239,14240,14341,14342,14443,14444,14761,15058,15059,15508
15509,15730,15907,17403,17655,17656,17886,18223,18543,18544,18657,18780,19032,19158,19500,19800
19801,20136,20580,20811,20812,21762,22366,23229,23625,23889,23890,24681,24936,25179,25300,25431
25432,26040,26041,26139,27388,28156,28157,28417,28418,28531,28748,28873,28874,29002,29398,31159
31411,31807,31808,31933,31934,32863,33115,33116,33607,33608,34123,35305,35557,35677,35797,36166
37345,37690,38423,38424,38675,39785,39786,39914,40178,41102,41103,41222,41223,41342,41933,41934
42065,42590,42591,42719,44177,44429,44430,44957,44958,45089,45090,45206,45662,46322,46323,46586
46587,46718,47078,47079,47198,47312,48188,48530,48531,48641,48642,48758,48759,48869,49605,49606
49737,49738,49860,50106,50107,50238,50370,50371,50502,50503,50634,50635,50763,50764,50889,51018
51615,51616,51879,52503,52504,52617,52618,52731,54204,54205,54510,54849,55095,55755,56019,56283
56811,57207,57999,58000,58527,58528,58791,59451,60543,60544,60807,61467,61599,61600,61731,61995
61996,62127,62751,62970,62971,63087,63088,63327,63328,63453,63454,63585,63586,63849,63850,63981
63982,64113,64245,64509,64510,65681,65741,65742,65823,65824,65934,65935,66048,66522,66786,66787
66918,66919,67314,67710,67711,67842,67843,68198,68199,68396,70134,71042,71180,71249,71513,71777
71778,72437,72438,72569,72570,73153,73435,73436,73492,73493,73606,74134,74266,74267,74926,75184
75397,75398,76729,77785,78391,78392,78493,78494,78598,78709,78710,78819,78820,78931,79183,79184
80233,80234,80365,80366,81121,81565,81778,81779,81904,81905,82030,82288,82289,82420,82421,82552
** ... 45 like lines cut
*Elset, elset=_maxX_S2, internal
395,923,1055,1187,1319,1451,1715,1979,2111,3166,3167,3299,3431,3563,3695,3827
4487,4619,4882,5147,5278,5411,5543,5806,5807,6070,6731,7258,7391,7786,7787,7919
8710,8843,9107,9208,9209,9311,9413,9518,9769,9770,9902,10298,10430,10694,10958,11089
11222,11354,11486,11618,11881,11882,12014,12116,12419,12509,12599,12928,12929,13061,13325,13457
13840,13841,14546,14689,14690,15295,15296,15400,15401,15623,15731,16739,16740,16961,17158,17404
17530,17776,18108,18337,18439,18658,18781,19033,19159,19285,19356,19428,19501,19635,19708,19903
20019,20137,20247,20581,20695,20917,21108,21109,21205,21307,21636,21763,22014,22134,22629,22630
23097,23362,23493,23494,23626,23757,24022,24286,24550,25683,27149,27269,27389,27511,27512,27635
27760,27893,28288,28289,29003,29135,29266,29399,29662,29926,29927,30404,30895,30896,31160,31412
31544,32048,32155,32497,32498,32618,32738,32989,32990,33739,33871,33872,34367,34489,35306,35558
35678,35798,35917,36040,36167,36286,36539,36799,36800,36928,37045,37241,37346,37573,38549,38550
38676,38910,39174,39305,39422,39915,40179,40442,40574,40575,40707,40839,40970,40971,41343,41573
41682,41805,42197,42198,42330,42461,42462,42720,43578,43698,43817,43938,44178,44693,44694,45663
46058,46059,46191,46455,46719,46958,46959,47199,47672,47673,47805,47937,48189,48422,48423,49473
49474,49978,50890,51019,51484,51880,52012,52143,52144,52276,52390,52732,52849,52974,52975,53238
53239,53371,53950,54082,54511,54622,54964,55096,55228,55360,55887,56284,56547,56548,56680,56812
56944,57075,57208,57471,57603,57604,57867,58659,58660,58792,59055,59187,59188,59584,59716,59836
59947,60060,60177,60297,60298,60675,60676,60808,60940,61203,61204,61468,61732,61863,62128,62259
62260,62392,62524,63717,64246,64641,64773,64906,65430,65431,65542,65622,65682,66049,66163,66283
66523,67050,67051,67183,67315,67446,67578,68348,68397,68524,68622,68838,68839,69078,69079,69211
** ... 61 like lines cut
*Elset, elset=_maxX_S3, internal
130,131,1847,2638,2639,2771,2902,2903,3034,3035,3959,4222,4223,4883,6202,6203
6334,6335,6467,6599,6863,7654,7655,8051,8975,9637,9638,10034,10826,12217,12218,12319
12320,12694,12695,14618,14839,14840,15178,15179,16962,17060,17997,17998,19357,19573,21409,21510
21511,21637,21889,22966,25563,25564,25801,25927,29531,29795,30047,30286,30287,30632,30763,30764
32264,32378,33347,33475,33476,34004,34928,35179,35180,36041,36671,38298,39042,39534,39659,39660
40047,40311,41463,43236,43343,43344,43457,43458,44058,44301,44826,45531,45795,47541,48309,53107
54735,54736,55492,55623,55624,55888,56152,56416,57340,57472,57868,58132,58263,58264,58395,58396
59056,60178,61071,61072,61336,62860,64642,65038,65169,65170,65301,65302,66403,67579,68101,68264
68265,68310,68730,68731,68947,69475,69606,69607,69738,69739,70752,70884,71112,71381,71382,72985
72986,73070,73229,73300,73301,74531,74662,74663,75769,76466,77654,78044,79574,82157,82684,82685
82816,82817,83345,83477,86123,86387,89258,89509,89911,90000,90001,90107,91655,92174,93218,93338
95573,95943,95944,96094,96226,96621,96622,97125,97126,97516,98656,100165,100839,101001,101002,101103
101104,101706,101707,101832,101833,103882,104860,109763,110955,112833,115062,117257,118708,119793,120068,120069
120393,120394,121473,121474,121576,122338,122432,122433,123013,123127,123498,123499,126332,126940,126941,127652
128108,128750,129001,129962,130081,130082,131690,131933,133856,137619,137818,139464,139957,140220,140221,141252
141253,142978,143206,143443,144787,146060,147176,147539,148118,148370,149717,150194,150412,151013,151643,151762
151763,151876,154527,154649,154650,156256,156841,157474,158449,159964,160927,161287,161511,161983,163054,164473
166172,166676,167327,168700,168701,168820,168821,168941,169898,170417,170885,171378,171476,171477,171846,172035
172206,173697,174395,177889,178786,179893,180022,180402,180403,180919,181050,181051,182529,182739,182740,183436
183934,184549,185779,185780,186398,186995,188048,188426,188687,190267,190268,191561,192376,192377,192752,195485
** ... 7 like lines cut
*Elset, elset=_maxX_S4, internal
262,263,394,790,791,1186,1318,1450,1582,1583,1714,1846,1978,2110,2242,2243
2507,2770,3430,3694,3826,3958,4091,4355,4618,4750,4751,5015,5146,5279,5674,5675
5939,6071,6466,6598,6862,7127,7259,7390,7918,8050,8579,8711,8974,9310,9517,10033
10297,10429,10825,11090,11353,11749,11750,12013,12115,12418,12508,12598,13060,13192,13193,13588
13589,14044,14045,14545,14617,14762,14941,14942,15622,15826,15827,16850,16851,17277,17278,17529
17775,17887,18336,18438,18906,18907,19284,19429,19572,19902,20020,20467,20694,20916,21015,21016
21204,21306,21408,21888,22015,22497,22498,22746,23098,23230,23361,23758,24021,24153,24154,24285
24417,24418,24549,24682,24813,24814,25057,25926,27148,27268,27634,27761,27892,28024,28025,29134
29267,29530,29663,29794,30046,30166,30167,30403,30514,31027,31028,31285,31286,31543,31675,31676
32047,32156,32263,32377,32617,32737,32864,33232,33740,34003,34238,34366,35053,35054,35431,35432
35918,36407,36538,36670,36929,37453,37454,37574,38297,38792,39041,39173,39306,40046,40310,40443
40706,40838,41462,41804,42066,42329,42839,43577,43697,43818,43937,44057,44300,44561,44562,44825
45794,45926,45927,46190,46454,46838,46839,47804,47936,48065,48066,48308,50239,51141,51747,51748
52011,52275,52389,52848,53106,53370,53487,53602,53724,54081,54306,54403,54621,54850,54963,55227
55359,55491,55756,56020,56151,56415,56679,56943,57076,57339,57735,57736,58131,58923,58924,59319
59320,59452,59583,59715,59835,59946,60061,60417,60418,60939,61335,61864,62391,62523,62643,62644
62752,62859,63207,63208,63718,64114,64377,64378,64774,64905,65037,65541,65621,66162,66282,66402
66654,66655,67182,67447,67974,67975,68100,68309,68349,68450,68451,68523,68623,68946,69210,69342
69474,70002,70003,70266,70398,70399,70604,70673,70751,70824,70982,70983,71043,71111,71181,71514
71645,71646,71909,71910,72041,72173,72821,72910,72911,73069,73550,73738,73739,73871,74398,74399
** ... 53 like lines cut
*Surface, type = ELEMENT, name = maxX
_maxX_S1, S1
_maxX_S2, S2
_maxX_S3, S3
_maxX_S4, S4
*Elset, elset=_minY_S1, internal
2919,2937,2949,2952,2955,2958,2979,2982,2985,2991,2994,2997,3027,3030,5955,5979
5982,5985,5988,5991,6021,9003,9027,9030,9099,9102,9105,11898,11901,11904,11916,11934
11937,11940,11943,11946,11949,11958,11961,11970,11973,14454,14520,14523,14526,14529,14538,14541
16570,16573,16576,16588,16618,16621,16624,16630,19169,19172,19181,19199,19202,19223,19235,19238
19265,21437,21443,21446,21467,21470,21473,21476,21479,21485,21503,21506,24296,24299,24314,24317
24374,24377,24386,24392,24395,24404,26946,26964,26967,26970,26982,27012,27015,27018,27021,29805
29829,29841,29865,29868,29889,29907,32628,32658,32661,32664,32688,32691,32694,32697,32706,32724
32736,35442,35445,35448,35451,35454,35466,35469,35472,35484,35508,35532,35535,35538,35550,35556
38119,38122,38125,38149,38152,40981,40999,41011,41029,41032,41035,41047,41101,41104,43744,43768
43786,43792,43795,43816,46597,46600,46603,46627,46639,46642,46651,46663,46666,46669,46675,46705
49277,49307,49325,49337,52220,52223,52226,52229,52244,52247,52262,52274,54866,54869,54890,54893
54896,54902,54905,54914,54917,54920,54929,54935,54956,57878,57881,57896,57962,57998,58001,60818
60830,60833,60836,60848,60851,60854,60884,60896,60908,60920,60932,63770,63773,63776,63800,63803
63818,63821,63824,63827,63830,66407,66431,66491,66497,66521,68861,68864,68873,68897,68900,68909
68912,68939,71212,71248,73569,73572,73587,73590,73593,73605,76350,76374,76377,76392,76395,76410
76413,79194,79218,79224,79227,79242,79245,79248,79272,79290,79293,79296,82041,82044,82053,82083
82086,82101,82125,82143,82146,84855,84858,84873,84897,84909,84921,84933,87690,87693,87714,87726
87738,87741,87744,87762,87765,87768,87780,87783,87798,87801,87804,87807,87810,87813,90486,90504
90516,90540,90600,93342,93345,93348,93354,93378,93390,93393,93444,93447,96038,96050,96068,96071
98924,98966,98972,98990,98993,99002,99020,99023,99038,99041,99044,101585,101588,101597,101600,101603
** ... 33 like lines cut
*Elset, elset=_minY_S2, internal
2913,2925,2943,2946,2967,2973,2988,3009,3012,5943,5949,5952,5958,5961,5967,5973
5976,5997,6003,6018,6027,6030,6033,6048,6051,6057,6063,6072,8979,8988,8991,9000
9006,9012,9021,9024,9039,9057,9063,9075,9078,9087,9093,9096,11910,11913,11922,11925
11931,11955,11964,12003,12006,12009,12012,12015,14448,14451,14466,14469,14475,14496,14505,14508
16582,16585,16591,16603,16606,16612,16627,19163,19187,19214,19229,19247,19256,19259,19262,19271
19274,19283,21416,21419,21422,21425,21431,21434,21455,21461,21464,21491,21500,24311,24326,24332
24344,24350,24353,24362,24365,24368,24380,24398,24401,24410,24413,24416,24419,26937,26940,26949
26955,26958,26973,26976,26985,26997,27000,27030,29802,29811,29817,29823,29826,29835,29838,29847
29853,29874,29877,29883,29901,29904,29913,32625,32631,32640,32652,32655,32679,32700,32712,32718
32730,35439,35457,35478,35487,35496,35502,35505,35514,35520,35526,35544,35547,35553,38086,38089
38095,38101,38104,38116,38155,38161,40978,40984,40987,41008,41017,41020,41023,41026,41041,41044
41053,41062,41068,41083,41095,41098,43708,43720,43726,43738,43753,43756,43762,43765,43774,43777
43783,43813,46591,46606,46615,46621,46624,46633,46657,46684,46687,46693,46699,46702,46714,46717
46720,49259,49262,49265,49274,49280,49286,49289,49298,49301,49313,49316,49331,49334,49343,52148
52157,52169,52172,52184,52196,52214,52217,52232,52238,52241,52250,52259,52271,54854,54863,54881
54884,54899,54926,54947,54950,54962,57884,57890,57902,57911,57914,57932,57935,57938,57950,57956
57968,57974,57986,57989,60812,60815,60824,60842,60857,60860,60878,60881,60887,60890,60902,60923
60929,63725,63728,63737,63740,63758,63764,63782,63791,63833,63842,63848,63851,66413,66425,66428
66434,66437,66443,66452,66455,66458,66464,66467,66476,66479,66488,66503,66506,66518,68843,68849
68852,68867,68870,68879,68888,68903,68915,68930,68945,71194,71197,71203,71221,71224,71227,71242
** ... 56 like lines cut
*Elset, elset=_minY_S3, internal
2910,2931,2934,2961,2964,2970,2976,3003,3006,3015,3018,3021,3024,3033,3036,5946
6000,6036,6039,6042,8982,9036,9042,9045,9048,9060,11889,11976,11979,11982,11985,11988
11991,11994,11997,14481,14484,14487,14517,14532,14535,16558,16561,16564,16567,16594,16597,16600
19166,19190,19205,19208,19220,21428,21482,21509,21512,24290,24293,24305,24335,24383,26979,26988
26991,27003,27006,27009,29814,29850,29856,29859,29862,29916,29919,29922,32643,32670,32673,32703
32709,32721,35460,35463,35481,38134,38137,38140,38143,38146,38164,38167,38170,38173,40990,41056
41086,43711,43729,43741,43789,43798,43801,43804,43807,46594,46609,46612,46636,46648,46660,49268
52151,52160,52163,52175,52178,52181,52187,52202,52205,54857,54872,54875,54908,54911,54938,54941
57941,57959,57977,57992,57995,60827,60863,60866,60869,60872,60875,60914,60917,63731,63749,63767
63785,63797,63809,63812,63815,63845,66440,66509,66512,68855,68858,68876,68882,68894,68918,68921
68924,68933,68936,68948,71245,73554,73557,73560,73563,73578,76347,76437,76467,79284,79287,82047
82050,82080,82098,82152,82155,82158,84864,84870,84894,87705,87759,87777,87789,93363,93375,93399
93402,93405,93420,93423,93453,93456,93459,96023,96044,96047,96062,96065,96089,96092,96095,98951
98963,98987,101591,101594,101630,101663,101666,101672,101702,101705,101708,104297,104369,106787,106790,106802
106838,106856,108458,109902,109905,109908,109944,111613,111616,111619,111685,111703,111721,113870,113909,113942
116075,116081,116087,116117,116120,116123,116129,118589,118670,118709,121067,121094,121097,121115,121121,121124
121127,121136,121139,121151,121160,121163,123566,123569,123572,126000,128385,128397,128451,131088,131091,131118
131121,131145,131148,131151,131175,131181,131199,133767,133779,133782,133785,133800,133803,133821,133857,135767
135770,135773,135776,135782,138203,138233,138251,138254,138257,138269,141116,143759,143762,145914,145956,148122
148125,148137,148206,148209,148233,150786,150807,150810,150864,150867,150870,150876,153717,156089,156092,156110
** ... 11 like lines cut
*Elset, elset=_minY_S4, internal
2907,2916,2922,2928,2940,3000,5964,5970,5994,6006,6009,6012,6015,6024,6045,6054
6060,6066,6069,8985,8994,8997,9009,9015,9018,9033,9051,9054,9066,9069,9072,9081
9084,9090,9108,11886,11892,11895,11907,11919,11928,11952,11967,12000,14457,14460,14463,14472
14478,14490,14493,14499,14502,14511,14514,14544,14547,16552,16555,16579,16609,16615,19175,19178
19184,19193,19196,19211,19217,19226,19232,19241,19244,19250,19253,19268,19277,19280,19286,21413
21440,21449,21452,21458,21488,21494,21497,24302,24308,24320,24323,24329,24338,24341,24347,24356
24359,24371,24389,24407,26934,26943,26952,26961,26994,27024,27027,29799,29808,29820,29832,29844
29871,29880,29886,29892,29895,29898,29910,29925,29928,32622,32634,32637,32646,32649,32667,32676
32682,32685,32715,32727,32733,32739,35436,35475,35490,35493,35499,35511,35517,35523,35529,35541
35559,38083,38092,38098,38107,38110,38113,38128,38131,38158,40975,40993,40996,41002,41005,41014
41038,41050,41059,41065,41071,41074,41077,41080,41089,41092,43702,43705,43714,43717,43723,43732
43735,43747,43750,43759,43771,43780,43810,43819,46618,46630,46645,46654,46672,46678,46681,46690
46696,46708,46711,49253,49256,49271,49283,49292,49295,49304,49310,49319,49322,49328,49340,52154
52166,52190,52193,52199,52208,52211,52235,52253,52256,52265,52268,52277,54860,54878,54887,54923
54932,54944,54953,54959,54965,57872,57875,57887,57893,57899,57905,57908,57917,57920,57923,57926
57929,57944,57947,57953,57965,57971,57980,57983,60821,60839,60845,60893,60899,60905,60911,60926
60935,60938,60941,63722,63734,63743,63746,63752,63755,63761,63779,63788,63794,63806,63836,63839
66410,66416,66419,66422,66446,66449,66461,66470,66473,66482,66485,66494,66500,66515,66524,68846
68885,68891,68906,68927,68942,71185,71188,71191,71200,71206,71209,71215,71218,71230,71233,71236
71239,71251,73566,73581,73596,73599,73608,76344,76353,76365,76386,76401,76404,76419,76428,76431
** ... 55 like lines cut
*Surface, type = ELEMENT, name = minY
_minY_S1, S1
_minY_S2, S2
_minY_S3, S3
_minY_S4, S4
*Elset, elset=_maxY_S1, internal
7,10,25,28,31,43,61,67,70,73,79,97,100,103,106,109
127,3043,3061,3079,6073,6085,6097,6100,6103,6181,6199,9139,9151,9163,12046,12088
14572,14614,16682,16685,19305,19317,19320,19323,19329,19353,19356,21519,21522,21549,21585,21588
21597,21615,21633,21636,24444,24447,24468,24471,24474,24477,24480,24483,24486,24528,27091,27094
27109,27139,30007,30037,30043,32746,32752,32755,32758,32848,32851,32854,35584,35596,35599,35653
35662,35665,38174,38186,38189,38276,38288,38291,38294,41180,41186,41189,41213,43850,43853,43856
43880,46733,46745,46787,46823,49356,49359,49362,49365,49392,49398,49410,49428,49431,52332,52338
52356,52359,52362,52380,52383,54972,54975,54978,54990,55002,55005,55032,55056,55059,55074,55086
58014,58017,58020,58062,58086,58110,58128,60966,60969,60972,60975,60978,61032,61056,61068,63864
63882,63966,66549,66552,66579,66582,66585,66597,66615,68967,68991,69021,69039,69069,69072,71270
71273,71336,71348,71360,71378,71381,73615,73633,73636,73645,73648,73669,73717,73720,73723,73726
73729,73732,76480,76483,76486,76534,79318,79336,79414,82177,82189,82201,82207,82213,82249,84949
84985,85003,85033,85045,85051,85054,85057,87832,87898,87901,87934,90664,90667,90676,90679,93460
93472,93532,93535,93538,93562,96096,96099,96132,96168,96180,96183,96222,96225,99096,99156,101715
101718,101721,101739,101745,101751,101763,101766,101775,101817,101829,104388,104424,104448,104484,104490,106902
106929,106932,106935,110002,110014,111734,111767,114057,114069,114072,116139,116145,116148,116151,116181,116193
116196,116223,118764,118818,121182,121194,121197,121236,121239,121242,123657,123675,123717,123723,123726,123729
126034,126037,126040,126070,126112,126115,128542,128602,131248,131251,131293,133873,133876,133885,135876,135879
135882,135930,135942,138300,138324,138366,138390,138393,138396,141189,141201,141249,143823,143829,143859,143883
143886,143895,143898,146008,146020,146023,146026,146029,146056,146059,148318,148348,148366,148369,150907,150925
** ... 15 like lines cut
*Elset, elset=_maxY_S2, internal
1,16,34,46,52,82,88,118,3040,3046,3052,3058,3064,3073,3076,3091
3094,3106,3112,3127,3130,3136,3142,3157,3160,6076,6088,6106,6112,6118,6124,6133
6136,6142,6151,6154,6187,6190,6196,9109,9127,9130,9142,9169,9181,9187,9199,9202
12025,12028,12037,12040,12052,12058,12067,12073,12076,12085,12091,12103,12115,14557,14563,14575
14581,14584,14587,14593,14596,14617,16634,16637,16643,16646,16649,16691,16703,16709,16718,16727
16736,19287,19290,19308,19332,19335,19338,19344,19347,21528,21531,21540,21546,21552,21555,21561
21567,21573,21579,21594,21600,21609,21627,21630,24420,24423,24435,24453,24456,24465,24489,24495
24504,24510,24513,24519,24531,24534,24543,24549,27031,27037,27040,27046,27049,27052,27064,27070
27076,27082,27100,27112,27121,27124,27130,27136,27142,27148,29938,29950,29977,29980,29998,30013
30022,30025,30028,30040,30046,32749,32782,32785,32794,32800,32803,32812,32815,32821,32833,32857
35560,35563,35575,35581,35587,35626,35629,35632,35638,35641,35650,35659,35668,35674,38177,38180
38192,38195,38207,38219,38231,38234,38237,38243,38249,38261,38267,38297,41111,41114,41120,41129
41132,41135,41147,41156,41165,41174,41183,41192,41195,41201,41207,41210,41216,43838,43841,43859
43865,43871,43874,43889,43901,43904,43907,43913,43928,43934,43937,46724,46736,46748,46754,46760
46766,46772,46778,46790,46793,46799,46805,46808,46814,46817,46826,46838,49350,49371,49389,49395
49401,49404,49413,49416,49419,49437,49443,49452,49455,49461,52278,52287,52299,52302,52308,52311
52320,52323,52341,52377,52389,54969,54981,54987,55008,55014,55023,55035,55041,55050,55065,55077
55089,58011,58023,58029,58032,58035,58041,58047,58050,58065,58089,58098,58104,58107,58116,58122
58131,60942,60951,60957,60981,60987,60990,60993,60999,61014,61017,61023,61029,61035,61041,61047
61059,63852,63855,63870,63873,63885,63888,63909,63912,63918,63936,63939,63972,63975,66531,66534
** ... 62 like lines cut
*Elset, elset=_maxY_S3, internal
4,58,3070,3085,3088,3118,3121,3124,3148,3166,6127,6130,6148,6160,6163,6166
6169,6172,9112,9115,9118,9124,9157,9160,9178,9190,9193,9196,9208,12019,12031,12109
14602,14605,14608,14611,16661,16664,16667,16670,16673,16676,16679,16697,16712,16715,16739,19296
19299,19302,19314,21516,21534,21564,21576,21612,21618,21621,21624,24429,24459,24507,27034,27058
27106,29932,29941,29944,29953,29956,29962,29965,29968,29983,29986,30016,32740,32743,32764,32767
32770,32773,32776,32779,32797,32836,32839,32842,32845,35593,35602,35605,35608,35611,35617,35623
35635,35647,35671,38201,38225,38255,41108,41138,41141,41144,41150,41159,41162,41177,41204,41222
43820,43823,43826,43829,43832,43835,43892,43895,43931,46739,46742,46784,46802,46820,46832,49344
49347,49380,49383,49422,49425,49449,49464,49467,49470,49473,52281,52305,52317,52329,52347,52350
52353,52365,52368,52371,54996,54999,55011,55029,55047,58059,58071,58080,58083,58095,58101,58125
60963,61005,61008,61011,61053,63891,63894,63897,63900,63903,63921,63924,63927,63930,63933,63948
63951,63954,63957,63960,63963,63981,66525,66528,66546,66594,66606,66609,66612,68958,68961,68964
69027,69030,69075,69078,71276,71279,71282,71285,71297,71300,71303,71327,71345,71354,71357,73609
73612,73624,73642,73684,76501,76531,76540,76543,76561,76597,79345,79354,79357,79420,79423,79426
79429,82168,82174,82222,82225,82228,82240,82276,82279,82282,82285,82288,84946,84964,84970,85012
85042,87829,87853,87865,87883,87895,87943,90610,90613,90631,90670,90673,90682,90685,90706,90709
90721,90733,93481,93493,93505,93583,96111,96141,96144,96147,96150,96153,96156,96159,96189,96204
96207,96219,99063,99072,99075,99093,99117,99171,101730,101733,101736,101754,101769,101772,101796,101826
104397,104421,104454,104457,104475,106878,106881,106884,106887,106890,106926,108570,108573,108576,109990,109993
109999,110020,110023,111728,111731,111740,111743,111746,111764,111788,113979,113982,113994,114006,114009,114012
** ... 32 like lines cut
*Elset, elset=_maxY_S4, internal
13,19,22,37,40,49,55,64,76,85,91,94,112,115,121,124
130,3037,3049,3055,3067,3082,3097,3100,3103,3109,3115,3133,3139,3145,3151,3154
3163,6079,6082,6091,6094,6109,6115,6121,6139,6145,6157,6175,6178,6184,6193,6202
9121,9133,9136,9145,9148,9154,9166,9172,9175,9184,9205,12016,12022,12034,12043,12049
12055,12061,12064,12070,12079,12082,12094,12097,12100,12106,12112,14548,14551,14554,14560,14566
14569,14578,14590,14599,16631,16640,16652,16655,16658,16688,16694,16700,16706,16721,16724,16730
16733,19293,19311,19326,19341,19350,21513,21525,21537,21543,21558,21570,21582,21591,21603,21606
24426,24432,24438,24441,24450,24462,24492,24498,24501,24516,24522,24525,24537,24540,24546,27043
27055,27061,27067,27073,27079,27085,27088,27097,27103,27115,27118,27127,27133,27145,29929,29935
29947,29959,29971,29974,29989,29992,29995,30001,30004,30010,30019,30031,30034,32761,32788,32791
32806,32809,32818,32824,32827,32830,32860,32863,35566,35569,35572,35578,35590,35614,35620,35644
35656,35677,38183,38198,38204,38210,38213,38216,38222,38228,38240,38246,38252,38258,38264,38270
38273,38279,38282,38285,41105,41117,41123,41126,41153,41168,41171,41198,41219,43844,43847,43862
43868,43877,43883,43886,43898,43910,43916,43919,43922,43925,46721,46727,46730,46751,46757,46763
46769,46775,46781,46796,46811,46829,46835,49353,49368,49374,49377,49386,49407,49434,49440,49446
49458,52284,52290,52293,52296,52314,52326,52335,52344,52374,52386,54966,54984,54993,55017,55020
55026,55038,55044,55053,55062,55068,55071,55080,55083,55092,55095,58002,58005,58008,58026,58038
58044,58053,58056,58068,58074,58077,58092,58113,58119,60945,60948,60954,60960,60984,60996,61002
61020,61026,61038,61044,61050,61062,61065,61071,63858,63861,63867,63876,63879,63906,63915,63942
63945,63969,63978,66537,66543,66555,66561,66564,66567,66573,66591,66603,66621,66627,66633,66639
** ... 62 like lines cut
*Surface, type = ELEMENT, name = maxY
_maxY_S1, S1
_maxY_S2, S2
_maxY_S3, S3
_maxY_S4, S4
*Elset, elset=_minZ_S1, internal
2,13,19,20,37,38,49,50,55,56,85,86,91,92,115,116
121,122,133,134,145,146,151,152,163,164,181,182,193,194,211,229
230,235,236,241,242,253,254,295,296,301,302,307,308,319,320,331
332,349,350,355,356,367,368,373,374,379,380,385,386,391,392,397
398,403,404,415,416,421,422,427,428,439,440,445,446,469,470,475
476,505,506,511,512,523,524,529,530,541,542,547,548,553,554,559
560,565,566,595,596,607,608,655,656,661,662,667,668,697,698,709
710,721,722,727,728,739,740,745,746,751,752,757,758,781,782,799
800,805,806,829,830,835,836,841,842,847,848,859,860,871,872,895
896,901,902,913,914,919,920,931,932,937,938,949,950,955,956,961
962,973,974,985,986,991,992,997,998,1003,1004,1009,1010,1027,1028,1039
1040,1051,1052,1057,1058,1063,1064,1069,1070,1075,1076,1081,1082,1093,1094,1099
1117,1118,1123,1124,1129,1130,1135,1136,1153,1154,1165,1166,1171,1172,1177,1178
1183,1184,1195,1196,1219,1220,1231,1232,1237,1238,1243,1244,1249,1250,1255,1256
1261,1262,1267,1268,1273,1274,1285,1286,1303,1304,1309,1310,1315,1316,1327,1328
1333,1339,1340,1351,1352,1357,1358,1363,1364,1369,1370,1375,1376,1381,1382,1387
1388,1399,1400,1417,1418,1423,1424,1429,1430,1435,1436,1447,1448,1453,1454,1459
1460,1465,1466,1477,1478,1483,1484,1513,1514,1519,1520,1555,1556,1567,1568,1573
1574,1585,1586,1603,1604,1621,1622,1627,1628,1633,1634,1657,1658,1663,1664,1675
1676,1681,1682,1687,1688,1705,1706,1711,1712,1717,1718,1723,1724,1735,1736,1783
** ... 15 like lines cut
*Elset, elset=_minZ_S2, internal
8,14,25,31,43,62,67,79,97,103,109,110,127,139,170,175
199,200,212,223,224,259,271,277,278,289,325,362,451,452,463,487
488,517,535,577,590,613,631,649,674,679,685,703,733,763,764,775
776,793,794,811,817,818,877,878,883,908,943,979,1015,1033,1045,1046
1087,1100,1147,1189,1213,1279,1297,1298,1321,1334,1394,1405,1406,1411,1471,1495
1496,1531,1532,1544,1550,1561,1562,1591,1592,1615,1616,1639,1669,1694,1741,1753
1771,1838,1855,1862,1873,1897,1915,1933,1934,1982,2023,2030,2041,2042,2047,2053
2089,2095,2167,2191,2245,2257,2258,2270,2299,2300,2305,2318,2354,2407,2420,2437
2438,2455,2461,2467,2479,2491,2527,2533,2575,2647,2648,2653,2689,2701,2707,2726
2749,2750,2773,2815,2833,2858,2893,2894,2899,2905,2965,2971,3031,3032
*Elset, elset=_minZ_S3, internal
7,61,73,74,157,158,188,205,206,217,218,283,284,313,314,337
338,344,409,410,433,434,457,458,493,494,499,500,571,572,583,584
602,619,620,625,626,637,638,691,692,715,716,787,788,823,824,853
854,865,866,889,890,926,968,1111,1112,1141,1142,1159,1160,1201,1202,1225
1226,1345,1346,1489,1490,1501,1502,1507,1508,1526,1579,1580,1597,1598,1610,1645
1646,1652,1699,1700,1730,1759,1760,1765,1766,1777,1778,1903,1904,1927,1928,1970
2059,2060,2114,2131,2132,2221,2222,2233,2234,2389,2390,2401,2402,2509,2510,2515
2516,2593,2594,2617,2618,2623,2624,2635,2636,2641,2642,2671,2672,2737,2738,2761
2762,2791,2792,2827,2828,2930,2960,3001,3002,3013,3014,3019,3020
*Elset, elset=_minZ_S4, internal
1,26,32,44,68,80,98,104,128,140,169,176,187,247,248,260
265,266,272,290,326,343,361,464,481,482,518,536,578,589,601,614
632,643,644,650,673,680,686,704,734,769,770,812,884,907,925,944
967,980,1016,1021,1022,1034,1088,1105,1106,1148,1190,1207,1208,1214,1280,1291
1292,1322,1393,1412,1441,1442,1472,1525,1537,1538,1543,1549,1609,1640,1651,1670
1693,1729,1742,1747,1748,1754,1772,1789,1790,1843,1844,1856,1861,1874,1898,1916
1951,1952,1969,1993,1994,1999,2000,2017,2018,2024,2048,2054,2065,2066,2090,2096
2113,2161,2162,2168,2192,2246,2269,2306,2317,2353,2408,2419,2456,2462,2468,2480
2492,2497,2498,2528,2534,2557,2558,2576,2605,2606,2654,2683,2684,2690,2702,2708
2743,2744,2767,2768,2774,2816,2834,2881,2882,2900,2906,2929,2959,2966,2972,2983
*Surface, type = ELEMENT, name = minZ
_minZ_S1, S1
_minZ_S2, S2
_minZ_S3, S3
_minZ_S4, S4
*Elset, elset=_maxZ_S1, internal
256842,256848,256849,256866,256867,256926,256927,256969,256980,256981,256992,256993,257004,257040,257041,257046
257047,257064,257172,257238,257239,257274,257275,257370,257412,257413,257436,257437,257442,257443,257478,257479
257496,257556,257557,257580,257581,257610,257611,257628,257629,257646,257647,257664,257676,257677,257688,257706
257707,257712,257713,257760,257761,257796,257797,257802,257803,257808,257809,257820,257821,257838,257839,257850
257892,257893,257916,257917,257922,257923,257958,258090,258138,258139,258156,258157,258210,258234,258235,258246
258258,258259,258270,258271,258306,258307,258324,258325,258336,258337,258384,258385,258390,258391,258408,258409
258450,258451,258462,258463,258498,258499,258516,258517,258546,258570,258571,258594,258630,258631,258702,258703
258756,258757,258768,258769,258858,258859,258894,258895,258912,258913,258936,258937,258954,259068,259069,259110
259111,259116,259117,259176,259177,259188,259189,259200,259201,259224,259225,259236,259237,259248,259249,259284
259285,259302,259303,259314,259315,259350,259351,259416,259417,259458,259459,259482,259483,259506,259566,259567
259596,259597,259608,259609,259626,259668,259669,259747,259752,259753,259764,259765,259783,259837
*Elset, elset=_maxZ_S2, internal
256861,256885,256915,256951,256956,256968,256974,256998,256999,257023,257029,257034,257059,257071,257094,257095
257101,257107,257131,257136,257137,257155,257166,257167,257179,257184,257185,257196,257197,257227,257263,257269
257280,257281,257286,257304,257323,257341,257346,257347,257352,257364,257430,257431,257509,257544,257545,257551
257563,257592,257593,257617,257640,257653,257658,257718,257719,257725,257767,257779,257785,257790,257833,257899
257952,257953,257982,257983,258013,258018,258019,258025,258037,258066,258067,258085,258103,258120,258133,258144
258162,258163,258174,258180,258181,258205,258217,258222,258223,258252,258253,258289,258313,258319,258331,258342
258360,258361,258378,258396,258397,258402,258403,258426,258427,258433,258474,258504,258511,258523,258540,258582
258583,258601,258606,258648,258649,258655,258673,258685,258709,258715,258721,258798,258799,258823,258889,258900
258907,258942,258943,258967,258978,258985,258991,259086,259087,259092,259129,259158,259159,259195,259207,259219
259242,259261,259297,259327,259344,259356,259423,259446,259488,259489,259494,259495,259501,259513,259525,259561
259573,259650,259651,259687,259699,259723,259746,259777,259782,259788,259795,259800,259801,259807,259812,259836
*Elset, elset=_maxZ_S3, internal
256818,256819,256824,256825,256830,256831,256836,256854,256855,256872,256873,256878,256879,256890,256891,256896
256897,256902,256903,256908,256909,256920,256921,256932,256933,256938,256939,256944,256945,256962,256963,256986
256987,257010,257011,257016,257017,257052,257053,257076,257077,257082,257083,257088,257089,257112,257113,257118
257119,257124,257125,257142,257143,257160,257161,257190,257191,257202,257203,257208,257209,257214,257215,257232
257233,257244,257245,257250,257251,257256,257257,257292,257293,257298,257299,257310,257311,257316,257317,257328
257329,257334,257335,257358,257359,257365,257376,257377,257382,257383,257388,257389,257394,257395,257400,257401
257406,257407,257418,257419,257424,257425,257448,257449,257454,257455,257460,257461,257472,257473,257484,257485
257490,257491,257502,257503,257514,257515,257520,257521,257526,257527,257532,257533,257538,257539,257574,257575
257586,257587,257598,257599,257604,257605,257622,257623,257634,257635,257659,257670,257671,257682,257683,257694
257695,257700,257701,257730,257731,257736,257737,257742,257743,257748,257749,257754,257755,257772,257773,257814
257815,257826,257827,257844,257845,257856,257857,257862,257863,257868,257869,257874,257875,257880,257881,257886
257887,257904,257905,257910,257911,257928,257929,257934,257935,257940,257941,257946,257947,257964,257965,257970
257971,257976,257977,257988,257989,257994,257995,258000,258001,258006,258007,258030,258031,258042,258043,258048
258049,258054,258055,258060,258061,258072,258073,258078,258079,258096,258097,258108,258109,258126,258127,258150
258151,258168,258169,258175,258186,258187,258192,258193,258198,258199,258228,258229,258240,258241,258264,258265
258276,258277,258282,258283,258294,258295,258300,258301,258348,258349,258354,258355,258366,258367,258372,258373
258414,258415,258420,258421,258438,258439,258444,258445,258456,258457,258468,258469,258480,258481,258486,258487
258492,258493,258528,258529,258534,258535,258552,258553,258558,258559,258564,258565,258576,258577,258588,258589
258612,258613,258636,258637,258642,258643,258660,258661,258666,258667,258678,258679,258690,258691,258696,258697
258726,258727,258732,258733,258738,258739,258750,258751,258762,258763,258774,258775,258780,258781,258792,258793
** ... 13 like lines cut
*Elset, elset=_maxZ_S4, internal
256837,256843,256860,256884,256914,256950,256957,256975,257005,257022,257028,257035,257058,257065,257070,257100
257106,257130,257148,257149,257154,257173,257178,257220,257221,257226,257262,257268,257287,257305,257322,257340
257353,257371,257466,257467,257497,257508,257550,257562,257568,257569,257616,257641,257652,257665,257689,257724
257766,257778,257784,257791,257832,257851,257898,257959,258012,258024,258036,258084,258091,258102,258114,258115
258121,258132,258145,258204,258211,258216,258247,258288,258312,258318,258330,258343,258379,258432,258475,258505
258510,258522,258541,258547,258595,258600,258607,258618,258619,258624,258625,258654,258672,258684,258708,258714
258720,258744,258745,258786,258787,258822,258888,258906,258955,258966,258979,258984,258990,259002,259003,259026
259027,259093,259128,259140,259141,259194,259206,259212,259213,259218,259243,259260,259296,259326,259357,259422
259500,259507,259512,259518,259519,259524,259560,259572,259627,259656,259657,259686,259698,259722,259776,259789
259794,259806,259843,259848,259849
*Surface, type = ELEMENT, name = maxZ
_maxZ_S1, S1
_maxZ_S2, S2
_maxZ_S3, S3
_maxZ_S4, S4
**------------------------
*Material, name=MATERIAL-1
*Density
2300
*Elastic
30.0e9, 0.30
*EXPANSION
 1.0
*Porosity
0.06
*Permeability
1e-14
**------------------------
*Material, name=FAULTSET
*Density
2700
*Elastic
30.0e9, 0.30
*Porosity
0.25
*Permeability
1.0e-10
**------------------------
*SCALEMODEL
100
*SCALEDIS
0
**------------------------
*DISCONSTRAINT , time_step=  1
nX,1,0
nY,2,0
pZ,3,0
**------------------------
*DSFORCE  , time_step=  1
maxX,1,10e6
maxY,2,20e6
minZ,3,30.000
*GRAVITY
Set-all, 3, -9.81
**------------------------
*SOLVER
Name=FEM_NOFLUID_NOTHERMAL_NOELECTRICAL_NOFRAC
**Name=FEMM_NOFLUID_NOTHERMAL_NOELECTRICAL_FRAC
**Name=FEMM_CONSTFLUID_NOTHERMAL_NOELECTRICAL_FRAC
**Name=FEMM_TOUGHFLUID_NOTHERMAL_NOELECTRICAL_FRAC
NUMBER_OF_TIME_STEP =1
MIN_NUMBER_OF_ITERATIONS = 1
MAX_NUMBER_OF_ITERATIONS =1
